CM Eggbeater antenna (crossed full-wave loops)
CM freq 436 MHz, phasing self, reflector radials
CM conductor: round, 3 mm dia, equiv radius 1.5 mm
CE
GW 100 1 -0.009301 0.000000 0.031213 0.009301 0.000000 0.031213 0.001500
GW 101 1 0.009301 0.000000 0.031213 0.027619 0.000000 0.034443 0.001500
GW 102 1 0.027619 0.000000 0.034443 0.045099 0.000000 0.040805 0.001500
GW 103 1 0.045099 0.000000 0.040805 0.061208 0.000000 0.050106 0.001500
GW 104 1 0.061208 0.000000 0.050106 0.075457 0.000000 0.062062 0.001500
GW 105 1 0.075457 0.000000 0.062062 0.087414 0.000000 0.076312 0.001500
GW 106 1 0.087414 0.000000 0.076312 0.096714 0.000000 0.092421 0.001500
GW 107 1 0.096714 0.000000 0.092421 0.103076 0.000000 0.109900 0.001500
GW 108 1 0.103076 0.000000 0.109900 0.106306 0.000000 0.128219 0.001500
GW 109 1 0.106306 0.000000 0.128219 0.106306 0.000000 0.146820 0.001500
GW 110 1 0.106306 0.000000 0.146820 0.103076 0.000000 0.165139 0.001500
GW 111 1 0.103076 0.000000 0.165139 0.096714 0.000000 0.182618 0.001500
GW 112 1 0.096714 0.000000 0.182618 0.087414 0.000000 0.198727 0.001500
GW 113 1 0.087414 0.000000 0.198727 0.075457 0.000000 0.212977 0.001500
GW 114 1 0.075457 0.000000 0.212977 0.061208 0.000000 0.224933 0.001500
GW 115 1 0.061208 0.000000 0.224933 0.045099 0.000000 0.234234 0.001500
GW 116 1 0.045099 0.000000 0.234234 0.027619 0.000000 0.240596 0.001500
GW 117 1 0.027619 0.000000 0.240596 0.009301 0.000000 0.243826 0.001500
GW 118 1 0.009301 0.000000 0.243826 -0.009301 0.000000 0.243826 0.001500
GW 119 1 -0.009301 0.000000 0.243826 -0.027619 0.000000 0.240596 0.001500
GW 120 1 -0.027619 0.000000 0.240596 -0.045099 0.000000 0.234234 0.001500
GW 121 1 -0.045099 0.000000 0.234234 -0.061208 0.000000 0.224933 0.001500
GW 122 1 -0.061208 0.000000 0.224933 -0.075457 0.000000 0.212977 0.001500
GW 123 1 -0.075457 0.000000 0.212977 -0.087414 0.000000 0.198727 0.001500
GW 124 1 -0.087414 0.000000 0.198727 -0.096714 0.000000 0.182618 0.001500
GW 125 1 -0.096714 0.000000 0.182618 -0.103076 0.000000 0.165139 0.001500
GW 126 1 -0.103076 0.000000 0.165139 -0.106306 0.000000 0.146820 0.001500
GW 127 1 -0.106306 0.000000 0.146820 -0.106306 0.000000 0.128219 0.001500
GW 128 1 -0.106306 0.000000 0.128219 -0.103076 0.000000 0.109900 0.001500
GW 129 1 -0.103076 0.000000 0.109900 -0.096714 0.000000 0.092421 0.001500
GW 130 1 -0.096714 0.000000 0.092421 -0.087414 0.000000 0.076312 0.001500
GW 131 1 -0.087414 0.000000 0.076312 -0.075457 0.000000 0.062062 0.001500
GW 132 1 -0.075457 0.000000 0.062062 -0.061208 0.000000 0.050106 0.001500
GW 133 1 -0.061208 0.000000 0.050106 -0.045099 0.000000 0.040805 0.001500
GW 134 1 -0.045099 0.000000 0.040805 -0.027619 0.000000 0.034443 0.001500
GW 135 1 -0.027619 0.000000 0.034443 -0.009301 0.000000 0.031213 0.001500
GW 200 1 0.000000 -0.010995 0.011842 0.000000 0.010995 0.011842 0.001500
GW 201 1 0.000000 0.010995 0.011842 0.000000 0.032652 0.015660 0.001500
GW 202 1 0.000000 0.032652 0.015660 0.000000 0.053317 0.023182 0.001500
GW 203 1 0.000000 0.053317 0.023182 0.000000 0.072361 0.034177 0.001500
GW 204 1 0.000000 0.072361 0.034177 0.000000 0.089207 0.048312 0.001500
GW 205 1 0.000000 0.089207 0.048312 0.000000 0.103342 0.065158 0.001500
GW 206 1 0.000000 0.103342 0.065158 0.000000 0.114338 0.084203 0.001500
GW 207 1 0.000000 0.114338 0.084203 0.000000 0.121859 0.104867 0.001500
GW 208 1 0.000000 0.121859 0.104867 0.000000 0.125678 0.126524 0.001500
GW 209 1 0.000000 0.125678 0.126524 0.000000 0.125678 0.148515 0.001500
GW 210 1 0.000000 0.125678 0.148515 0.000000 0.121859 0.170172 0.001500
GW 211 1 0.000000 0.121859 0.170172 0.000000 0.114338 0.190836 0.001500
GW 212 1 0.000000 0.114338 0.190836 0.000000 0.103342 0.209881 0.001500
GW 213 1 0.000000 0.103342 0.209881 0.000000 0.089207 0.226727 0.001500
GW 214 1 0.000000 0.089207 0.226727 0.000000 0.072361 0.240862 0.001500
GW 215 1 0.000000 0.072361 0.240862 0.000000 0.053317 0.251857 0.001500
GW 216 1 0.000000 0.053317 0.251857 0.000000 0.032652 0.259379 0.001500
GW 217 1 0.000000 0.032652 0.259379 0.000000 0.010995 0.263197 0.001500
GW 218 1 0.000000 0.010995 0.263197 0.000000 -0.010995 0.263197 0.001500
GW 219 1 0.000000 -0.010995 0.263197 0.000000 -0.032652 0.259379 0.001500
GW 220 1 0.000000 -0.032652 0.259379 0.000000 -0.053317 0.251857 0.001500
GW 221 1 0.000000 -0.053317 0.251857 0.000000 -0.072361 0.240862 0.001500
GW 222 1 0.000000 -0.072361 0.240862 0.000000 -0.089207 0.226727 0.001500
GW 223 1 0.000000 -0.089207 0.226727 0.000000 -0.103342 0.209881 0.001500
GW 224 1 0.000000 -0.103342 0.209881 0.000000 -0.114338 0.190836 0.001500
GW 225 1 0.000000 -0.114338 0.190836 0.000000 -0.121859 0.170172 0.001500
GW 226 1 0.000000 -0.121859 0.170172 0.000000 -0.125678 0.148515 0.001500
GW 227 1 0.000000 -0.125678 0.148515 0.000000 -0.125678 0.126524 0.001500
GW 228 1 0.000000 -0.125678 0.126524 0.000000 -0.121859 0.104867 0.001500
GW 229 1 0.000000 -0.121859 0.104867 0.000000 -0.114338 0.084203 0.001500
GW 230 1 0.000000 -0.114338 0.084203 0.000000 -0.103342 0.065158 0.001500
GW 231 1 0.000000 -0.103342 0.065158 0.000000 -0.089207 0.048312 0.001500
GW 232 1 0.000000 -0.089207 0.048312 0.000000 -0.072361 0.034177 0.001500
GW 233 1 0.000000 -0.072361 0.034177 0.000000 -0.053317 0.023182 0.001500
GW 234 1 0.000000 -0.053317 0.023182 0.000000 -0.032652 0.015660 0.001500
GW 235 1 0.000000 -0.032652 0.015660 0.000000 -0.010995 0.011842 0.001500
GW 300 5 0.000000 0.000000 0.000000 0.119334 0.000000 -0.142217 0.001500
GW 301 5 0.000000 0.000000 0.000000 -0.059667 0.103347 -0.142217 0.001500
GW 302 5 0.000000 0.000000 0.000000 -0.059667 -0.103347 -0.142217 0.001500
GE 0
EK
EX 0 100 1 0 1.000000 0.000000
EX 0 200 1 0 1.000000 0.000000
FR 0 1 0 0 436.000000 0
RP 0 9 7 1000 0.000 0.000 10.000 15.000
EN
