CM Eggbeater antenna (crossed full-wave loops)
CM freq 436 MHz, phasing self, reflector radials
CM conductor: round, 3 mm dia, equiv radius 1.5 mm
CE
GW 100 1 -0.009035 0.000000 0.068628 0.009035 0.000000 0.068628 0.001500
GW 101 1 0.009035 0.000000 0.068628 0.026831 0.000000 0.071766 0.001500
GW 102 1 0.026831 0.000000 0.071766 0.043811 0.000000 0.077946 0.001500
GW 103 1 0.043811 0.000000 0.077946 0.059460 0.000000 0.086981 0.001500
GW 104 1 0.059460 0.000000 0.086981 0.073303 0.000000 0.098597 0.001500
GW 105 1 0.073303 0.000000 0.098597 0.084918 0.000000 0.112439 0.001500
GW 106 1 0.084918 0.000000 0.112439 0.093953 0.000000 0.128088 0.001500
GW 107 1 0.093953 0.000000 0.128088 0.100133 0.000000 0.145069 0.001500
GW 108 1 0.100133 0.000000 0.145069 0.103271 0.000000 0.162864 0.001500
GW 109 1 0.103271 0.000000 0.162864 0.103271 0.000000 0.180934 0.001500
GW 110 1 0.103271 0.000000 0.180934 0.100133 0.000000 0.198730 0.001500
GW 111 1 0.100133 0.000000 0.198730 0.093953 0.000000 0.215710 0.001500
GW 112 1 0.093953 0.000000 0.215710 0.084918 0.000000 0.231360 0.001500
GW 113 1 0.084918 0.000000 0.231360 0.073303 0.000000 0.245202 0.001500
GW 114 1 0.073303 0.000000 0.245202 0.059460 0.000000 0.256817 0.001500
GW 115 1 0.059460 0.000000 0.256817 0.043811 0.000000 0.265852 0.001500
GW 116 1 0.043811 0.000000 0.265852 0.026831 0.000000 0.272033 0.001500
GW 117 1 0.026831 0.000000 0.272033 0.009035 0.000000 0.275171 0.001500
GW 118 1 0.009035 0.000000 0.275171 -0.009035 0.000000 0.275171 0.001500
GW 119 1 -0.009035 0.000000 0.275171 -0.026831 0.000000 0.272033 0.001500
GW 120 1 -0.026831 0.000000 0.272033 -0.043811 0.000000 0.265852 0.001500
GW 121 1 -0.043811 0.000000 0.265852 -0.059460 0.000000 0.256817 0.001500
GW 122 1 -0.059460 0.000000 0.256817 -0.073303 0.000000 0.245202 0.001500
GW 123 1 -0.073303 0.000000 0.245202 -0.084918 0.000000 0.231360 0.001500
GW 124 1 -0.084918 0.000000 0.231360 -0.093953 0.000000 0.215710 0.001500
GW 125 1 -0.093953 0.000000 0.215710 -0.100133 0.000000 0.198730 0.001500
GW 126 1 -0.100133 0.000000 0.198730 -0.103271 0.000000 0.180934 0.001500
GW 127 1 -0.103271 0.000000 0.180934 -0.103271 0.000000 0.162864 0.001500
GW 128 1 -0.103271 0.000000 0.162864 -0.100133 0.000000 0.145069 0.001500
GW 129 1 -0.100133 0.000000 0.145069 -0.093953 0.000000 0.128088 0.001500
GW 130 1 -0.093953 0.000000 0.128088 -0.084918 0.000000 0.112439 0.001500
GW 131 1 -0.084918 0.000000 0.112439 -0.073303 0.000000 0.098597 0.001500
GW 132 1 -0.073303 0.000000 0.098597 -0.059460 0.000000 0.086981 0.001500
GW 133 1 -0.059460 0.000000 0.086981 -0.043811 0.000000 0.077946 0.001500
GW 134 1 -0.043811 0.000000 0.077946 -0.026831 0.000000 0.071766 0.001500
GW 135 1 -0.026831 0.000000 0.071766 -0.009035 0.000000 0.068628 0.001500
GW 200 1 0.000000 -0.010933 0.046933 0.000000 0.010933 0.046933 0.001500
GW 201 1 0.000000 0.010933 0.046933 0.000000 0.032467 0.050730 0.001500
GW 202 1 0.000000 0.032467 0.050730 0.000000 0.053015 0.058209 0.001500
GW 203 1 0.000000 0.053015 0.058209 0.000000 0.071952 0.069142 0.001500
GW 204 1 0.000000 0.071952 0.069142 0.000000 0.088702 0.083197 0.001500
GW 205 1 0.000000 0.088702 0.083197 0.000000 0.102758 0.099948 0.001500
GW 206 1 0.000000 0.102758 0.099948 0.000000 0.113691 0.118885 0.001500
GW 207 1 0.000000 0.113691 0.118885 0.000000 0.121169 0.139432 0.001500
GW 208 1 0.000000 0.121169 0.139432 0.000000 0.124966 0.160966 0.001500
GW 209 1 0.000000 0.124966 0.160966 0.000000 0.124966 0.182832 0.001500
GW 210 1 0.000000 0.124966 0.182832 0.000000 0.121169 0.204367 0.001500
GW 211 1 0.000000 0.121169 0.204367 0.000000 0.113691 0.224914 0.001500
GW 212 1 0.000000 0.113691 0.224914 0.000000 0.102758 0.243851 0.001500
GW 213 1 0.000000 0.102758 0.243851 0.000000 0.088702 0.260602 0.001500
GW 214 1 0.000000 0.088702 0.260602 0.000000 0.071952 0.274657 0.001500
GW 215 1 0.000000 0.071952 0.274657 0.000000 0.053015 0.285590 0.001500
GW 216 1 0.000000 0.053015 0.285590 0.000000 0.032467 0.293069 0.001500
GW 217 1 0.000000 0.032467 0.293069 0.000000 0.010933 0.296866 0.001500
GW 218 1 0.000000 0.010933 0.296866 0.000000 -0.010933 0.296866 0.001500
GW 219 1 0.000000 -0.010933 0.296866 0.000000 -0.032467 0.293069 0.001500
GW 220 1 0.000000 -0.032467 0.293069 0.000000 -0.053015 0.285590 0.001500
GW 221 1 0.000000 -0.053015 0.285590 0.000000 -0.071952 0.274657 0.001500
GW 222 1 0.000000 -0.071952 0.274657 0.000000 -0.088702 0.260602 0.001500
GW 223 1 0.000000 -0.088702 0.260602 0.000000 -0.102758 0.243851 0.001500
GW 224 1 0.000000 -0.102758 0.243851 0.000000 -0.113691 0.224914 0.001500
GW 225 1 0.000000 -0.113691 0.224914 0.000000 -0.121169 0.204367 0.001500
GW 226 1 0.000000 -0.121169 0.204367 0.000000 -0.124966 0.182832 0.001500
GW 227 1 0.000000 -0.124966 0.182832 0.000000 -0.124966 0.160966 0.001500
GW 228 1 0.000000 -0.124966 0.160966 0.000000 -0.121169 0.139432 0.001500
GW 229 1 0.000000 -0.121169 0.139432 0.000000 -0.113691 0.118885 0.001500
GW 230 1 0.000000 -0.113691 0.118885 0.000000 -0.102758 0.099948 0.001500
GW 231 1 0.000000 -0.102758 0.099948 0.000000 -0.088702 0.083197 0.001500
GW 232 1 0.000000 -0.088702 0.083197 0.000000 -0.071952 0.069142 0.001500
GW 233 1 0.000000 -0.071952 0.069142 0.000000 -0.053015 0.058209 0.001500
GW 234 1 0.000000 -0.053015 0.058209 0.000000 -0.032467 0.050730 0.001500
GW 235 1 0.000000 -0.032467 0.050730 0.000000 -0.010933 0.046933 0.001500
GW 300 5 0.000000 0.000000 0.000000 0.185651 0.000000 0.000000 0.001500
GW 301 5 0.000000 0.000000 0.000000 0.131275 0.131275 0.000000 0.001500
GW 302 5 0.000000 0.000000 0.000000 0.000000 0.185651 0.000000 0.001500
GW 303 5 0.000000 0.000000 0.000000 -0.131275 0.131275 0.000000 0.001500
GW 304 5 0.000000 0.000000 0.000000 -0.185651 0.000000 0.000000 0.001500
GW 305 5 0.000000 0.000000 0.000000 -0.131275 -0.131275 0.000000 0.001500
GW 306 5 0.000000 0.000000 0.000000 -0.000000 -0.185651 0.000000 0.001500
GW 307 5 0.000000 0.000000 0.000000 0.131275 -0.131275 0.000000 0.001500
GE 0
EK
EX 0 100 1 0 1.000000 0.000000
EX 0 200 1 0 1.000000 0.000000
FR 0 1 0 0 436.000000 0
RP 0 9 7 1000 0.000 0.000 10.000 15.000
EN
