CM Eggbeater antenna (crossed full-wave loops)
CM freq 436 MHz, phasing self, reflector radials
CM conductor: round, 3 mm dia, equiv radius 1.5 mm
CE
GW 100 1 -0.009300 0.000000 0.031216 0.009300 0.000000 0.031216 0.001500
GW 101 1 0.009300 0.000000 0.031216 0.027619 0.000000 0.034446 0.001500
GW 102 1 0.027619 0.000000 0.034446 0.045098 0.000000 0.040807 0.001500
GW 103 1 0.045098 0.000000 0.040807 0.061206 0.000000 0.050108 0.001500
GW 104 1 0.061206 0.000000 0.050108 0.075455 0.000000 0.062064 0.001500
GW 105 1 0.075455 0.000000 0.062064 0.087412 0.000000 0.076313 0.001500
GW 106 1 0.087412 0.000000 0.076313 0.096712 0.000000 0.092422 0.001500
GW 107 1 0.096712 0.000000 0.092422 0.103074 0.000000 0.109901 0.001500
GW 108 1 0.103074 0.000000 0.109901 0.106304 0.000000 0.128219 0.001500
GW 109 1 0.106304 0.000000 0.128219 0.106304 0.000000 0.146820 0.001500
GW 110 1 0.106304 0.000000 0.146820 0.103074 0.000000 0.165138 0.001500
GW 111 1 0.103074 0.000000 0.165138 0.096712 0.000000 0.182617 0.001500
GW 112 1 0.096712 0.000000 0.182617 0.087412 0.000000 0.198726 0.001500
GW 113 1 0.087412 0.000000 0.198726 0.075455 0.000000 0.212975 0.001500
GW 114 1 0.075455 0.000000 0.212975 0.061206 0.000000 0.224931 0.001500
GW 115 1 0.061206 0.000000 0.224931 0.045098 0.000000 0.234231 0.001500
GW 116 1 0.045098 0.000000 0.234231 0.027619 0.000000 0.240593 0.001500
GW 117 1 0.027619 0.000000 0.240593 0.009300 0.000000 0.243823 0.001500
GW 118 1 0.009300 0.000000 0.243823 -0.009300 0.000000 0.243823 0.001500
GW 119 1 -0.009300 0.000000 0.243823 -0.027619 0.000000 0.240593 0.001500
GW 120 1 -0.027619 0.000000 0.240593 -0.045098 0.000000 0.234231 0.001500
GW 121 1 -0.045098 0.000000 0.234231 -0.061206 0.000000 0.224931 0.001500
GW 122 1 -0.061206 0.000000 0.224931 -0.075455 0.000000 0.212975 0.001500
GW 123 1 -0.075455 0.000000 0.212975 -0.087412 0.000000 0.198726 0.001500
GW 124 1 -0.087412 0.000000 0.198726 -0.096712 0.000000 0.182617 0.001500
GW 125 1 -0.096712 0.000000 0.182617 -0.103074 0.000000 0.165138 0.001500
GW 126 1 -0.103074 0.000000 0.165138 -0.106304 0.000000 0.146820 0.001500
GW 127 1 -0.106304 0.000000 0.146820 -0.106304 0.000000 0.128219 0.001500
GW 128 1 -0.106304 0.000000 0.128219 -0.103074 0.000000 0.109901 0.001500
GW 129 1 -0.103074 0.000000 0.109901 -0.096712 0.000000 0.092422 0.001500
GW 130 1 -0.096712 0.000000 0.092422 -0.087412 0.000000 0.076313 0.001500
GW 131 1 -0.087412 0.000000 0.076313 -0.075455 0.000000 0.062064 0.001500
GW 132 1 -0.075455 0.000000 0.062064 -0.061206 0.000000 0.050108 0.001500
GW 133 1 -0.061206 0.000000 0.050108 -0.045098 0.000000 0.040807 0.001500
GW 134 1 -0.045098 0.000000 0.040807 -0.027619 0.000000 0.034446 0.001500
GW 135 1 -0.027619 0.000000 0.034446 -0.009300 0.000000 0.031216 0.001500
GW 200 1 0.000000 -0.010989 0.011918 0.000000 0.010989 0.011918 0.001500
GW 201 1 0.000000 0.010989 0.011918 0.000000 0.032632 0.015734 0.001500
GW 202 1 0.000000 0.032632 0.015734 0.000000 0.053284 0.023251 0.001500
GW 203 1 0.000000 0.053284 0.023251 0.000000 0.072318 0.034239 0.001500
GW 204 1 0.000000 0.072318 0.034239 0.000000 0.089153 0.048366 0.001500
GW 205 1 0.000000 0.089153 0.048366 0.000000 0.103280 0.065202 0.001500
GW 206 1 0.000000 0.103280 0.065202 0.000000 0.114269 0.084235 0.001500
GW 207 1 0.000000 0.114269 0.084235 0.000000 0.121786 0.104887 0.001500
GW 208 1 0.000000 0.121786 0.104887 0.000000 0.125602 0.126531 0.001500
GW 209 1 0.000000 0.125602 0.126531 0.000000 0.125602 0.148508 0.001500
GW 210 1 0.000000 0.125602 0.148508 0.000000 0.121786 0.170152 0.001500
GW 211 1 0.000000 0.121786 0.170152 0.000000 0.114269 0.190804 0.001500
GW 212 1 0.000000 0.114269 0.190804 0.000000 0.103280 0.209837 0.001500
GW 213 1 0.000000 0.103280 0.209837 0.000000 0.089153 0.226673 0.001500
GW 214 1 0.000000 0.089153 0.226673 0.000000 0.072318 0.240800 0.001500
GW 215 1 0.000000 0.072318 0.240800 0.000000 0.053284 0.251788 0.001500
GW 216 1 0.000000 0.053284 0.251788 0.000000 0.032632 0.259305 0.001500
GW 217 1 0.000000 0.032632 0.259305 0.000000 0.010989 0.263121 0.001500
GW 218 1 0.000000 0.010989 0.263121 0.000000 -0.010989 0.263121 0.001500
GW 219 1 0.000000 -0.010989 0.263121 0.000000 -0.032632 0.259305 0.001500
GW 220 1 0.000000 -0.032632 0.259305 0.000000 -0.053284 0.251788 0.001500
GW 221 1 0.000000 -0.053284 0.251788 0.000000 -0.072318 0.240800 0.001500
GW 222 1 0.000000 -0.072318 0.240800 0.000000 -0.089153 0.226673 0.001500
GW 223 1 0.000000 -0.089153 0.226673 0.000000 -0.103280 0.209837 0.001500
GW 224 1 0.000000 -0.103280 0.209837 0.000000 -0.114269 0.190804 0.001500
GW 225 1 0.000000 -0.114269 0.190804 0.000000 -0.121786 0.170152 0.001500
GW 226 1 0.000000 -0.121786 0.170152 0.000000 -0.125602 0.148508 0.001500
GW 227 1 0.000000 -0.125602 0.148508 0.000000 -0.125602 0.126531 0.001500
GW 228 1 0.000000 -0.125602 0.126531 0.000000 -0.121786 0.104887 0.001500
GW 229 1 0.000000 -0.121786 0.104887 0.000000 -0.114269 0.084235 0.001500
GW 230 1 0.000000 -0.114269 0.084235 0.000000 -0.103280 0.065202 0.001500
GW 231 1 0.000000 -0.103280 0.065202 0.000000 -0.089153 0.048366 0.001500
GW 232 1 0.000000 -0.089153 0.048366 0.000000 -0.072318 0.034239 0.001500
GW 233 1 0.000000 -0.072318 0.034239 0.000000 -0.053284 0.023251 0.001500
GW 234 1 0.000000 -0.053284 0.023251 0.000000 -0.032632 0.015734 0.001500
GW 235 1 0.000000 -0.032632 0.015734 0.000000 -0.010989 0.011918 0.001500
GW 300 5 0.000000 0.000000 0.000000 0.131275 0.000000 -0.131275 0.001500
GW 301 5 0.000000 0.000000 0.000000 0.092826 0.092826 -0.131275 0.001500
GW 302 5 0.000000 0.000000 0.000000 0.000000 0.131275 -0.131275 0.001500
GW 303 5 0.000000 0.000000 0.000000 -0.092826 0.092826 -0.131275 0.001500
GW 304 5 0.000000 0.000000 0.000000 -0.131275 0.000000 -0.131275 0.001500
GW 305 5 0.000000 0.000000 0.000000 -0.092826 -0.092826 -0.131275 0.001500
GW 306 5 0.000000 0.000000 0.000000 -0.000000 -0.131275 -0.131275 0.001500
GW 307 5 0.000000 0.000000 0.000000 0.092826 -0.092826 -0.131275 0.001500
GE 0
EK
EX 0 100 1 0 1.000000 0.000000
EX 0 200 1 0 1.000000 0.000000
FR 0 1 0 0 436.000000 0
RP 0 9 7 1000 0.000 0.000 10.000 15.000
EN
