CM Eggbeater antenna (crossed full-wave loops)
CM freq 145.9 MHz, phasing self, reflector radials
CM conductor: round, 5 mm dia, equiv radius 2.5 mm
CE
GW 100 1 -0.027856 0.000000 0.092557 0.027856 0.000000 0.092557 0.002500
GW 101 1 0.027856 0.000000 0.092557 0.082723 0.000000 0.102231 0.002500
GW 102 1 0.082723 0.000000 0.102231 0.135075 0.000000 0.121286 0.002500
GW 103 1 0.135075 0.000000 0.121286 0.183324 0.000000 0.149143 0.002500
GW 104 1 0.183324 0.000000 0.149143 0.226002 0.000000 0.184954 0.002500
GW 105 1 0.226002 0.000000 0.184954 0.261814 0.000000 0.227632 0.002500
GW 106 1 0.261814 0.000000 0.227632 0.289670 0.000000 0.275881 0.002500
GW 107 1 0.289670 0.000000 0.275881 0.308725 0.000000 0.328234 0.002500
GW 108 1 0.308725 0.000000 0.328234 0.318399 0.000000 0.383100 0.002500
GW 109 1 0.318399 0.000000 0.383100 0.318399 0.000000 0.438812 0.002500
GW 110 1 0.318399 0.000000 0.438812 0.308725 0.000000 0.493679 0.002500
GW 111 1 0.308725 0.000000 0.493679 0.289670 0.000000 0.546031 0.002500
GW 112 1 0.289670 0.000000 0.546031 0.261814 0.000000 0.594280 0.002500
GW 113 1 0.261814 0.000000 0.594280 0.226002 0.000000 0.636958 0.002500
GW 114 1 0.226002 0.000000 0.636958 0.183324 0.000000 0.672770 0.002500
GW 115 1 0.183324 0.000000 0.672770 0.135075 0.000000 0.700626 0.002500
GW 116 1 0.135075 0.000000 0.700626 0.082723 0.000000 0.719681 0.002500
GW 117 1 0.082723 0.000000 0.719681 0.027856 0.000000 0.729355 0.002500
GW 118 1 0.027856 0.000000 0.729355 -0.027856 0.000000 0.729355 0.002500
GW 119 1 -0.027856 0.000000 0.729355 -0.082723 0.000000 0.719681 0.002500
GW 120 1 -0.082723 0.000000 0.719681 -0.135075 0.000000 0.700626 0.002500
GW 121 1 -0.135075 0.000000 0.700626 -0.183324 0.000000 0.672770 0.002500
GW 122 1 -0.183324 0.000000 0.672770 -0.226002 0.000000 0.636958 0.002500
GW 123 1 -0.226002 0.000000 0.636958 -0.261814 0.000000 0.594280 0.002500
GW 124 1 -0.261814 0.000000 0.594280 -0.289670 0.000000 0.546031 0.002500
GW 125 1 -0.289670 0.000000 0.546031 -0.308725 0.000000 0.493679 0.002500
GW 126 1 -0.308725 0.000000 0.493679 -0.318399 0.000000 0.438812 0.002500
GW 127 1 -0.318399 0.000000 0.438812 -0.318399 0.000000 0.383100 0.002500
GW 128 1 -0.318399 0.000000 0.383100 -0.308725 0.000000 0.328234 0.002500
GW 129 1 -0.308725 0.000000 0.328234 -0.289670 0.000000 0.275881 0.002500
GW 130 1 -0.289670 0.000000 0.275881 -0.261814 0.000000 0.227632 0.002500
GW 131 1 -0.261814 0.000000 0.227632 -0.226002 0.000000 0.184954 0.002500
GW 132 1 -0.226002 0.000000 0.184954 -0.183324 0.000000 0.149143 0.002500
GW 133 1 -0.183324 0.000000 0.149143 -0.135075 0.000000 0.121286 0.002500
GW 134 1 -0.135075 0.000000 0.121286 -0.082723 0.000000 0.102231 0.002500
GW 135 1 -0.082723 0.000000 0.102231 -0.027856 0.000000 0.092557 0.002500
GW 200 1 0.000000 -0.032206 0.042842 0.000000 0.032206 0.042842 0.002500
GW 201 1 0.000000 0.032206 0.042842 0.000000 0.095639 0.054027 0.002500
GW 202 1 0.000000 0.095639 0.054027 0.000000 0.156166 0.076057 0.002500
GW 203 1 0.000000 0.156166 0.076057 0.000000 0.211948 0.108263 0.002500
GW 204 1 0.000000 0.211948 0.108263 0.000000 0.261290 0.149666 0.002500
GW 205 1 0.000000 0.261290 0.149666 0.000000 0.302693 0.199008 0.002500
GW 206 1 0.000000 0.302693 0.199008 0.000000 0.334899 0.254790 0.002500
GW 207 1 0.000000 0.334899 0.254790 0.000000 0.356929 0.315317 0.002500
GW 208 1 0.000000 0.356929 0.315317 0.000000 0.368114 0.378750 0.002500
GW 209 1 0.000000 0.368114 0.378750 0.000000 0.368114 0.443162 0.002500
GW 210 1 0.000000 0.368114 0.443162 0.000000 0.356929 0.506595 0.002500
GW 211 1 0.000000 0.356929 0.506595 0.000000 0.334899 0.567122 0.002500
GW 212 1 0.000000 0.334899 0.567122 0.000000 0.302693 0.622904 0.002500
GW 213 1 0.000000 0.302693 0.622904 0.000000 0.261290 0.672246 0.002500
GW 214 1 0.000000 0.261290 0.672246 0.000000 0.211948 0.713649 0.002500
GW 215 1 0.000000 0.211948 0.713649 0.000000 0.156166 0.745855 0.002500
GW 216 1 0.000000 0.156166 0.745855 0.000000 0.095639 0.767885 0.002500
GW 217 1 0.000000 0.095639 0.767885 0.000000 0.032206 0.779070 0.002500
GW 218 1 0.000000 0.032206 0.779070 0.000000 -0.032206 0.779070 0.002500
GW 219 1 0.000000 -0.032206 0.779070 0.000000 -0.095639 0.767885 0.002500
GW 220 1 0.000000 -0.095639 0.767885 0.000000 -0.156166 0.745855 0.002500
GW 221 1 0.000000 -0.156166 0.745855 0.000000 -0.211948 0.713649 0.002500
GW 222 1 0.000000 -0.211948 0.713649 0.000000 -0.261290 0.672246 0.002500
GW 223 1 0.000000 -0.261290 0.672246 0.000000 -0.302693 0.622904 0.002500
GW 224 1 0.000000 -0.302693 0.622904 0.000000 -0.334899 0.567122 0.002500
GW 225 1 0.000000 -0.334899 0.567122 0.000000 -0.356929 0.506595 0.002500
GW 226 1 0.000000 -0.356929 0.506595 0.000000 -0.368114 0.443162 0.002500
GW 227 1 0.000000 -0.368114 0.443162 0.000000 -0.368114 0.378750 0.002500
GW 228 1 0.000000 -0.368114 0.378750 0.000000 -0.356929 0.315317 0.002500
GW 229 1 0.000000 -0.356929 0.315317 0.000000 -0.334899 0.254790 0.002500
GW 230 1 0.000000 -0.334899 0.254790 0.000000 -0.302693 0.199008 0.002500
GW 231 1 0.000000 -0.302693 0.199008 0.000000 -0.261290 0.149666 0.002500
GW 232 1 0.000000 -0.261290 0.149666 0.000000 -0.211948 0.108263 0.002500
GW 233 1 0.000000 -0.211948 0.108263 0.000000 -0.156166 0.076057 0.002500
GW 234 1 0.000000 -0.156166 0.076057 0.000000 -0.095639 0.054027 0.002500
GW 235 1 0.000000 -0.095639 0.054027 0.000000 -0.032206 0.042842 0.002500
GW 300 5 0.000000 0.000000 0.000000 0.392296 0.000000 -0.392296 0.002500
GW 301 5 0.000000 0.000000 0.000000 0.277395 0.277395 -0.392296 0.002500
GW 302 5 0.000000 0.000000 0.000000 0.000000 0.392296 -0.392296 0.002500
GW 303 5 0.000000 0.000000 0.000000 -0.277395 0.277395 -0.392296 0.002500
GW 304 5 0.000000 0.000000 0.000000 -0.392296 0.000000 -0.392296 0.002500
GW 305 5 0.000000 0.000000 0.000000 -0.277395 -0.277395 -0.392296 0.002500
GW 306 5 0.000000 0.000000 0.000000 -0.000000 -0.392296 -0.392296 0.002500
GW 307 5 0.000000 0.000000 0.000000 0.277395 -0.277395 -0.392296 0.002500
GE 0
EK
EX 0 100 1 0 1.000000 0.000000
EX 0 200 1 0 1.000000 0.000000
FR 0 1 0 0 145.900000 0
RP 0 9 7 1000 0.000 0.000 10.000 15.000
EN
