CM Eggbeater antenna (crossed full-wave loops)
CM freq 145.9 MHz, phasing self, reflector radials
CM conductor: round, 5 mm dia, equiv radius 2.5 mm
CE
GW 100 1 -0.027244 0.000000 0.202293 0.027244 0.000000 0.202293 0.002500
GW 101 1 0.027244 0.000000 0.202293 0.080905 0.000000 0.211755 0.002500
GW 102 1 0.080905 0.000000 0.211755 0.132107 0.000000 0.230391 0.002500
GW 103 1 0.132107 0.000000 0.230391 0.179295 0.000000 0.257635 0.002500
GW 104 1 0.179295 0.000000 0.257635 0.221036 0.000000 0.292659 0.002500
GW 105 1 0.221036 0.000000 0.292659 0.256060 0.000000 0.334400 0.002500
GW 106 1 0.256060 0.000000 0.334400 0.283304 0.000000 0.381588 0.002500
GW 107 1 0.283304 0.000000 0.381588 0.301940 0.000000 0.432790 0.002500
GW 108 1 0.301940 0.000000 0.432790 0.311402 0.000000 0.486451 0.002500
GW 109 1 0.311402 0.000000 0.486451 0.311402 0.000000 0.540939 0.002500
GW 110 1 0.311402 0.000000 0.540939 0.301940 0.000000 0.594600 0.002500
GW 111 1 0.301940 0.000000 0.594600 0.283304 0.000000 0.645802 0.002500
GW 112 1 0.283304 0.000000 0.645802 0.256060 0.000000 0.692990 0.002500
GW 113 1 0.256060 0.000000 0.692990 0.221036 0.000000 0.734731 0.002500
GW 114 1 0.221036 0.000000 0.734731 0.179295 0.000000 0.769755 0.002500
GW 115 1 0.179295 0.000000 0.769755 0.132107 0.000000 0.796999 0.002500
GW 116 1 0.132107 0.000000 0.796999 0.080905 0.000000 0.815636 0.002500
GW 117 1 0.080905 0.000000 0.815636 0.027244 0.000000 0.825097 0.002500
GW 118 1 0.027244 0.000000 0.825097 -0.027244 0.000000 0.825097 0.002500
GW 119 1 -0.027244 0.000000 0.825097 -0.080905 0.000000 0.815636 0.002500
GW 120 1 -0.080905 0.000000 0.815636 -0.132107 0.000000 0.796999 0.002500
GW 121 1 -0.132107 0.000000 0.796999 -0.179295 0.000000 0.769755 0.002500
GW 122 1 -0.179295 0.000000 0.769755 -0.221036 0.000000 0.734731 0.002500
GW 123 1 -0.221036 0.000000 0.734731 -0.256060 0.000000 0.692990 0.002500
GW 124 1 -0.256060 0.000000 0.692990 -0.283304 0.000000 0.645802 0.002500
GW 125 1 -0.283304 0.000000 0.645802 -0.301940 0.000000 0.594600 0.002500
GW 126 1 -0.301940 0.000000 0.594600 -0.311402 0.000000 0.540939 0.002500
GW 127 1 -0.311402 0.000000 0.540939 -0.311402 0.000000 0.486451 0.002500
GW 128 1 -0.311402 0.000000 0.486451 -0.301940 0.000000 0.432790 0.002500
GW 129 1 -0.301940 0.000000 0.432790 -0.283304 0.000000 0.381588 0.002500
GW 130 1 -0.283304 0.000000 0.381588 -0.256060 0.000000 0.334400 0.002500
GW 131 1 -0.256060 0.000000 0.334400 -0.221036 0.000000 0.292659 0.002500
GW 132 1 -0.221036 0.000000 0.292659 -0.179295 0.000000 0.257635 0.002500
GW 133 1 -0.179295 0.000000 0.257635 -0.132107 0.000000 0.230391 0.002500
GW 134 1 -0.132107 0.000000 0.230391 -0.080905 0.000000 0.211755 0.002500
GW 135 1 -0.080905 0.000000 0.211755 -0.027244 0.000000 0.202293 0.002500
GW 200 1 0.000000 -0.032081 0.147008 0.000000 0.032081 0.147008 0.002500
GW 201 1 0.000000 0.032081 0.147008 0.000000 0.095268 0.158150 0.002500
GW 202 1 0.000000 0.095268 0.158150 0.000000 0.155560 0.180095 0.002500
GW 203 1 0.000000 0.155560 0.180095 0.000000 0.211126 0.212176 0.002500
GW 204 1 0.000000 0.211126 0.212176 0.000000 0.260277 0.253418 0.002500
GW 205 1 0.000000 0.260277 0.253418 0.000000 0.301520 0.302569 0.002500
GW 206 1 0.000000 0.301520 0.302569 0.000000 0.333600 0.358135 0.002500
GW 207 1 0.000000 0.333600 0.358135 0.000000 0.355545 0.418427 0.002500
GW 208 1 0.000000 0.355545 0.418427 0.000000 0.366687 0.481614 0.002500
GW 209 1 0.000000 0.366687 0.481614 0.000000 0.366687 0.545776 0.002500
GW 210 1 0.000000 0.366687 0.545776 0.000000 0.355545 0.608963 0.002500
GW 211 1 0.000000 0.355545 0.608963 0.000000 0.333600 0.669256 0.002500
GW 212 1 0.000000 0.333600 0.669256 0.000000 0.301520 0.724821 0.002500
GW 213 1 0.000000 0.301520 0.724821 0.000000 0.260277 0.773972 0.002500
GW 214 1 0.000000 0.260277 0.773972 0.000000 0.211126 0.815215 0.002500
GW 215 1 0.000000 0.211126 0.815215 0.000000 0.155560 0.847296 0.002500
GW 216 1 0.000000 0.155560 0.847296 0.000000 0.095268 0.869240 0.002500
GW 217 1 0.000000 0.095268 0.869240 0.000000 0.032081 0.880382 0.002500
GW 218 1 0.000000 0.032081 0.880382 0.000000 -0.032081 0.880382 0.002500
GW 219 1 0.000000 -0.032081 0.880382 0.000000 -0.095268 0.869240 0.002500
GW 220 1 0.000000 -0.095268 0.869240 0.000000 -0.155560 0.847296 0.002500
GW 221 1 0.000000 -0.155560 0.847296 0.000000 -0.211126 0.815215 0.002500
GW 222 1 0.000000 -0.211126 0.815215 0.000000 -0.260277 0.773972 0.002500
GW 223 1 0.000000 -0.260277 0.773972 0.000000 -0.301520 0.724821 0.002500
GW 224 1 0.000000 -0.301520 0.724821 0.000000 -0.333600 0.669256 0.002500
GW 225 1 0.000000 -0.333600 0.669256 0.000000 -0.355545 0.608963 0.002500
GW 226 1 0.000000 -0.355545 0.608963 0.000000 -0.366687 0.545776 0.002500
GW 227 1 0.000000 -0.366687 0.545776 0.000000 -0.366687 0.481614 0.002500
GW 228 1 0.000000 -0.366687 0.481614 0.000000 -0.355545 0.418427 0.002500
GW 229 1 0.000000 -0.355545 0.418427 0.000000 -0.333600 0.358135 0.002500
GW 230 1 0.000000 -0.333600 0.358135 0.000000 -0.301520 0.302569 0.002500
GW 231 1 0.000000 -0.301520 0.302569 0.000000 -0.260277 0.253418 0.002500
GW 232 1 0.000000 -0.260277 0.253418 0.000000 -0.211126 0.212176 0.002500
GW 233 1 0.000000 -0.211126 0.212176 0.000000 -0.155560 0.180095 0.002500
GW 234 1 0.000000 -0.155560 0.180095 0.000000 -0.095268 0.158150 0.002500
GW 235 1 0.000000 -0.095268 0.158150 0.000000 -0.032081 0.147008 0.002500
GW 300 5 0.000000 0.000000 0.000000 0.554791 0.000000 0.000000 0.002500
GW 301 5 0.000000 0.000000 0.000000 0.392296 0.392296 0.000000 0.002500
GW 302 5 0.000000 0.000000 0.000000 0.000000 0.554791 0.000000 0.002500
GW 303 5 0.000000 0.000000 0.000000 -0.392296 0.392296 0.000000 0.002500
GW 304 5 0.000000 0.000000 0.000000 -0.554791 0.000000 0.000000 0.002500
GW 305 5 0.000000 0.000000 0.000000 -0.392296 -0.392296 0.000000 0.002500
GW 306 5 0.000000 0.000000 0.000000 -0.000000 -0.554791 0.000000 0.002500
GW 307 5 0.000000 0.000000 0.000000 0.392296 -0.392296 0.000000 0.002500
GE 0
EK
EX 0 100 1 0 1.000000 0.000000
EX 0 200 1 0 1.000000 0.000000
FR 0 1 0 0 145.900000 0
RP 0 9 7 1000 0.000 0.000 10.000 15.000
EN
