CM Eggbeater antenna (crossed full-wave loops)
CM freq 436 MHz, phasing self, reflector radials
CM conductor: round, 3 mm dia, equiv radius 1.5 mm
CE
GW 100 1 -0.009201 0.000000 0.035159 0.009201 0.000000 0.035159 0.001500
GW 101 1 0.009201 0.000000 0.035159 0.027323 0.000000 0.038355 0.001500
GW 102 1 0.027323 0.000000 0.038355 0.044616 0.000000 0.044649 0.001500
GW 103 1 0.044616 0.000000 0.044649 0.060552 0.000000 0.053850 0.001500
GW 104 1 0.060552 0.000000 0.053850 0.074649 0.000000 0.065678 0.001500
GW 105 1 0.074649 0.000000 0.065678 0.086478 0.000000 0.079775 0.001500
GW 106 1 0.086478 0.000000 0.079775 0.095679 0.000000 0.095712 0.001500
GW 107 1 0.095679 0.000000 0.095712 0.101972 0.000000 0.113004 0.001500
GW 108 1 0.101972 0.000000 0.113004 0.105168 0.000000 0.131126 0.001500
GW 109 1 0.105168 0.000000 0.131126 0.105168 0.000000 0.149528 0.001500
GW 110 1 0.105168 0.000000 0.149528 0.101972 0.000000 0.167651 0.001500
GW 111 1 0.101972 0.000000 0.167651 0.095679 0.000000 0.184943 0.001500
GW 112 1 0.095679 0.000000 0.184943 0.086478 0.000000 0.200880 0.001500
GW 113 1 0.086478 0.000000 0.200880 0.074649 0.000000 0.214976 0.001500
GW 114 1 0.074649 0.000000 0.214976 0.060552 0.000000 0.226805 0.001500
GW 115 1 0.060552 0.000000 0.226805 0.044616 0.000000 0.236006 0.001500
GW 116 1 0.044616 0.000000 0.236006 0.027323 0.000000 0.242300 0.001500
GW 117 1 0.027323 0.000000 0.242300 0.009201 0.000000 0.245495 0.001500
GW 118 1 0.009201 0.000000 0.245495 -0.009201 0.000000 0.245495 0.001500
GW 119 1 -0.009201 0.000000 0.245495 -0.027323 0.000000 0.242300 0.001500
GW 120 1 -0.027323 0.000000 0.242300 -0.044616 0.000000 0.236006 0.001500
GW 121 1 -0.044616 0.000000 0.236006 -0.060552 0.000000 0.226805 0.001500
GW 122 1 -0.060552 0.000000 0.226805 -0.074649 0.000000 0.214976 0.001500
GW 123 1 -0.074649 0.000000 0.214976 -0.086478 0.000000 0.200880 0.001500
GW 124 1 -0.086478 0.000000 0.200880 -0.095679 0.000000 0.184943 0.001500
GW 125 1 -0.095679 0.000000 0.184943 -0.101972 0.000000 0.167651 0.001500
GW 126 1 -0.101972 0.000000 0.167651 -0.105168 0.000000 0.149528 0.001500
GW 127 1 -0.105168 0.000000 0.149528 -0.105168 0.000000 0.131126 0.001500
GW 128 1 -0.105168 0.000000 0.131126 -0.101972 0.000000 0.113004 0.001500
GW 129 1 -0.101972 0.000000 0.113004 -0.095679 0.000000 0.095712 0.001500
GW 130 1 -0.095679 0.000000 0.095712 -0.086478 0.000000 0.079775 0.001500
GW 131 1 -0.086478 0.000000 0.079775 -0.074649 0.000000 0.065678 0.001500
GW 132 1 -0.074649 0.000000 0.065678 -0.060552 0.000000 0.053850 0.001500
GW 133 1 -0.060552 0.000000 0.053850 -0.044616 0.000000 0.044649 0.001500
GW 134 1 -0.044616 0.000000 0.044649 -0.027323 0.000000 0.038355 0.001500
GW 135 1 -0.027323 0.000000 0.038355 -0.009201 0.000000 0.035159 0.001500
GW 200 1 0.000000 -0.010975 0.014885 0.000000 0.010975 0.014885 0.001500
GW 201 1 0.000000 0.010975 0.014885 0.000000 0.032591 0.018697 0.001500
GW 202 1 0.000000 0.032591 0.018697 0.000000 0.053217 0.026204 0.001500
GW 203 1 0.000000 0.053217 0.026204 0.000000 0.072226 0.037179 0.001500
GW 204 1 0.000000 0.072226 0.037179 0.000000 0.089040 0.051288 0.001500
GW 205 1 0.000000 0.089040 0.051288 0.000000 0.103149 0.068102 0.001500
GW 206 1 0.000000 0.103149 0.068102 0.000000 0.114123 0.087111 0.001500
GW 207 1 0.000000 0.114123 0.087111 0.000000 0.121631 0.107737 0.001500
GW 208 1 0.000000 0.121631 0.107737 0.000000 0.125442 0.129353 0.001500
GW 209 1 0.000000 0.125442 0.129353 0.000000 0.125442 0.151302 0.001500
GW 210 1 0.000000 0.125442 0.151302 0.000000 0.121631 0.172918 0.001500
GW 211 1 0.000000 0.121631 0.172918 0.000000 0.114123 0.193544 0.001500
GW 212 1 0.000000 0.114123 0.193544 0.000000 0.103149 0.212553 0.001500
GW 213 1 0.000000 0.103149 0.212553 0.000000 0.089040 0.229367 0.001500
GW 214 1 0.000000 0.089040 0.229367 0.000000 0.072226 0.243476 0.001500
GW 215 1 0.000000 0.072226 0.243476 0.000000 0.053217 0.254451 0.001500
GW 216 1 0.000000 0.053217 0.254451 0.000000 0.032591 0.261958 0.001500
GW 217 1 0.000000 0.032591 0.261958 0.000000 0.010975 0.265770 0.001500
GW 218 1 0.000000 0.010975 0.265770 0.000000 -0.010975 0.265770 0.001500
GW 219 1 0.000000 -0.010975 0.265770 0.000000 -0.032591 0.261958 0.001500
GW 220 1 0.000000 -0.032591 0.261958 0.000000 -0.053217 0.254451 0.001500
GW 221 1 0.000000 -0.053217 0.254451 0.000000 -0.072226 0.243476 0.001500
GW 222 1 0.000000 -0.072226 0.243476 0.000000 -0.089040 0.229367 0.001500
GW 223 1 0.000000 -0.089040 0.229367 0.000000 -0.103149 0.212553 0.001500
GW 224 1 0.000000 -0.103149 0.212553 0.000000 -0.114123 0.193544 0.001500
GW 225 1 0.000000 -0.114123 0.193544 0.000000 -0.121631 0.172918 0.001500
GW 226 1 0.000000 -0.121631 0.172918 0.000000 -0.125442 0.151302 0.001500
GW 227 1 0.000000 -0.125442 0.151302 0.000000 -0.125442 0.129353 0.001500
GW 228 1 0.000000 -0.125442 0.129353 0.000000 -0.121631 0.107737 0.001500
GW 229 1 0.000000 -0.121631 0.107737 0.000000 -0.114123 0.087111 0.001500
GW 230 1 0.000000 -0.114123 0.087111 0.000000 -0.103149 0.068102 0.001500
GW 231 1 0.000000 -0.103149 0.068102 0.000000 -0.089040 0.051288 0.001500
GW 232 1 0.000000 -0.089040 0.051288 0.000000 -0.072226 0.037179 0.001500
GW 233 1 0.000000 -0.072226 0.037179 0.000000 -0.053217 0.026204 0.001500
GW 234 1 0.000000 -0.053217 0.026204 0.000000 -0.032591 0.018697 0.001500
GW 235 1 0.000000 -0.032591 0.018697 0.000000 -0.010975 0.014885 0.001500
GW 300 5 0.000000 0.000000 0.000000 0.178107 0.000000 -0.052385 0.001500
GW 301 5 0.000000 0.000000 0.000000 -0.089054 0.154246 -0.052385 0.001500
GW 302 5 0.000000 0.000000 0.000000 -0.089054 -0.154246 -0.052385 0.001500
GE 0
EK
EX 0 100 1 0 1.000000 0.000000
EX 0 200 1 0 1.000000 0.000000
FR 0 1 0 0 436.000000 0
RP 0 9 7 1000 0.000 0.000 10.000 15.000
EN
