CM Eggbeater antenna (crossed full-wave loops)
CM freq 145.9 MHz, phasing self, reflector radials
CM conductor: round, 5 mm dia, equiv radius 2.5 mm
CE
GW 100 1 -0.027841 0.000000 0.092726 0.027841 0.000000 0.092726 0.002500
GW 101 1 0.027841 0.000000 0.092726 0.082678 0.000000 0.102396 0.002500
GW 102 1 0.082678 0.000000 0.102396 0.135003 0.000000 0.121440 0.002500
GW 103 1 0.135003 0.000000 0.121440 0.183226 0.000000 0.149282 0.002500
GW 104 1 0.183226 0.000000 0.149282 0.225882 0.000000 0.185074 0.002500
GW 105 1 0.225882 0.000000 0.185074 0.261674 0.000000 0.227730 0.002500
GW 106 1 0.261674 0.000000 0.227730 0.289516 0.000000 0.275953 0.002500
GW 107 1 0.289516 0.000000 0.275953 0.308560 0.000000 0.328278 0.002500
GW 108 1 0.308560 0.000000 0.328278 0.318230 0.000000 0.383115 0.002500
GW 109 1 0.318230 0.000000 0.383115 0.318230 0.000000 0.438798 0.002500
GW 110 1 0.318230 0.000000 0.438798 0.308560 0.000000 0.493635 0.002500
GW 111 1 0.308560 0.000000 0.493635 0.289516 0.000000 0.545959 0.002500
GW 112 1 0.289516 0.000000 0.545959 0.261674 0.000000 0.594182 0.002500
GW 113 1 0.261674 0.000000 0.594182 0.225882 0.000000 0.636838 0.002500
GW 114 1 0.225882 0.000000 0.636838 0.183226 0.000000 0.672630 0.002500
GW 115 1 0.183226 0.000000 0.672630 0.135003 0.000000 0.700472 0.002500
GW 116 1 0.135003 0.000000 0.700472 0.082678 0.000000 0.719516 0.002500
GW 117 1 0.082678 0.000000 0.719516 0.027841 0.000000 0.729186 0.002500
GW 118 1 0.027841 0.000000 0.729186 -0.027841 0.000000 0.729186 0.002500
GW 119 1 -0.027841 0.000000 0.729186 -0.082678 0.000000 0.719516 0.002500
GW 120 1 -0.082678 0.000000 0.719516 -0.135003 0.000000 0.700472 0.002500
GW 121 1 -0.135003 0.000000 0.700472 -0.183226 0.000000 0.672630 0.002500
GW 122 1 -0.183226 0.000000 0.672630 -0.225882 0.000000 0.636838 0.002500
GW 123 1 -0.225882 0.000000 0.636838 -0.261674 0.000000 0.594182 0.002500
GW 124 1 -0.261674 0.000000 0.594182 -0.289516 0.000000 0.545959 0.002500
GW 125 1 -0.289516 0.000000 0.545959 -0.308560 0.000000 0.493635 0.002500
GW 126 1 -0.308560 0.000000 0.493635 -0.318230 0.000000 0.438798 0.002500
GW 127 1 -0.318230 0.000000 0.438798 -0.318230 0.000000 0.383115 0.002500
GW 128 1 -0.318230 0.000000 0.383115 -0.308560 0.000000 0.328278 0.002500
GW 129 1 -0.308560 0.000000 0.328278 -0.289516 0.000000 0.275953 0.002500
GW 130 1 -0.289516 0.000000 0.275953 -0.261674 0.000000 0.227730 0.002500
GW 131 1 -0.261674 0.000000 0.227730 -0.225882 0.000000 0.185074 0.002500
GW 132 1 -0.225882 0.000000 0.185074 -0.183226 0.000000 0.149282 0.002500
GW 133 1 -0.183226 0.000000 0.149282 -0.135003 0.000000 0.121440 0.002500
GW 134 1 -0.135003 0.000000 0.121440 -0.082678 0.000000 0.102396 0.002500
GW 135 1 -0.082678 0.000000 0.102396 -0.027841 0.000000 0.092726 0.002500
GW 200 1 0.000000 -0.032159 0.043382 0.000000 0.032159 0.043382 0.002500
GW 201 1 0.000000 0.032159 0.043382 0.000000 0.095499 0.054551 0.002500
GW 202 1 0.000000 0.095499 0.054551 0.000000 0.155937 0.076549 0.002500
GW 203 1 0.000000 0.155937 0.076549 0.000000 0.211637 0.108707 0.002500
GW 204 1 0.000000 0.211637 0.108707 0.000000 0.260907 0.150049 0.002500
GW 205 1 0.000000 0.260907 0.150049 0.000000 0.302249 0.199319 0.002500
GW 206 1 0.000000 0.302249 0.199319 0.000000 0.334408 0.255019 0.002500
GW 207 1 0.000000 0.334408 0.255019 0.000000 0.356405 0.315458 0.002500
GW 208 1 0.000000 0.356405 0.315458 0.000000 0.367574 0.378798 0.002500
GW 209 1 0.000000 0.367574 0.378798 0.000000 0.367574 0.443115 0.002500
GW 210 1 0.000000 0.367574 0.443115 0.000000 0.356405 0.506455 0.002500
GW 211 1 0.000000 0.356405 0.506455 0.000000 0.334408 0.566893 0.002500
GW 212 1 0.000000 0.334408 0.566893 0.000000 0.302249 0.622593 0.002500
GW 213 1 0.000000 0.302249 0.622593 0.000000 0.260907 0.671863 0.002500
GW 214 1 0.000000 0.260907 0.671863 0.000000 0.211637 0.713205 0.002500
GW 215 1 0.000000 0.211637 0.713205 0.000000 0.155937 0.745364 0.002500
GW 216 1 0.000000 0.155937 0.745364 0.000000 0.095499 0.767361 0.002500
GW 217 1 0.000000 0.095499 0.767361 0.000000 0.032159 0.778530 0.002500
GW 218 1 0.000000 0.032159 0.778530 0.000000 -0.032159 0.778530 0.002500
GW 219 1 0.000000 -0.032159 0.778530 0.000000 -0.095499 0.767361 0.002500
GW 220 1 0.000000 -0.095499 0.767361 0.000000 -0.155937 0.745364 0.002500
GW 221 1 0.000000 -0.155937 0.745364 0.000000 -0.211637 0.713205 0.002500
GW 222 1 0.000000 -0.211637 0.713205 0.000000 -0.260907 0.671863 0.002500
GW 223 1 0.000000 -0.260907 0.671863 0.000000 -0.302249 0.622593 0.002500
GW 224 1 0.000000 -0.302249 0.622593 0.000000 -0.334408 0.566893 0.002500
GW 225 1 0.000000 -0.334408 0.566893 0.000000 -0.356405 0.506455 0.002500
GW 226 1 0.000000 -0.356405 0.506455 0.000000 -0.367574 0.443115 0.002500
GW 227 1 0.000000 -0.367574 0.443115 0.000000 -0.367574 0.378798 0.002500
GW 228 1 0.000000 -0.367574 0.378798 0.000000 -0.356405 0.315458 0.002500
GW 229 1 0.000000 -0.356405 0.315458 0.000000 -0.334408 0.255019 0.002500
GW 230 1 0.000000 -0.334408 0.255019 0.000000 -0.302249 0.199319 0.002500
GW 231 1 0.000000 -0.302249 0.199319 0.000000 -0.260907 0.150049 0.002500
GW 232 1 0.000000 -0.260907 0.150049 0.000000 -0.211637 0.108707 0.002500
GW 233 1 0.000000 -0.211637 0.108707 0.000000 -0.155937 0.076549 0.002500
GW 234 1 0.000000 -0.155937 0.076549 0.000000 -0.095499 0.054551 0.002500
GW 235 1 0.000000 -0.095499 0.054551 0.000000 -0.032159 0.043382 0.002500
GW 300 5 0.000000 0.000000 0.000000 0.424994 0.000000 -0.356613 0.002500
GW 301 5 0.000000 0.000000 0.000000 0.300516 0.300516 -0.356613 0.002500
GW 302 5 0.000000 0.000000 0.000000 0.000000 0.424994 -0.356613 0.002500
GW 303 5 0.000000 0.000000 0.000000 -0.300516 0.300516 -0.356613 0.002500
GW 304 5 0.000000 0.000000 0.000000 -0.424994 0.000000 -0.356613 0.002500
GW 305 5 0.000000 0.000000 0.000000 -0.300516 -0.300516 -0.356613 0.002500
GW 306 5 0.000000 0.000000 0.000000 -0.000000 -0.424994 -0.356613 0.002500
GW 307 5 0.000000 0.000000 0.000000 0.300516 -0.300516 -0.356613 0.002500
GE 0
EK
EX 0 100 1 0 1.000000 0.000000
EX 0 200 1 0 1.000000 0.000000
FR 0 1 0 0 145.900000 0
RP 0 9 7 1000 0.000 0.000 10.000 15.000
EN
