CM Eggbeater antenna (crossed full-wave loops)
CM freq 145.9 MHz, phasing self, reflector radials
CM conductor: round, 5 mm dia, equiv radius 2.5 mm
CE
GW 100 1 -0.027751 0.000000 0.093761 0.027751 0.000000 0.093761 0.002500
GW 101 1 0.027751 0.000000 0.093761 0.082410 0.000000 0.103399 0.002500
GW 102 1 0.082410 0.000000 0.103399 0.134564 0.000000 0.122382 0.002500
GW 103 1 0.134564 0.000000 0.122382 0.182630 0.000000 0.150133 0.002500
GW 104 1 0.182630 0.000000 0.150133 0.225147 0.000000 0.185809 0.002500
GW 105 1 0.225147 0.000000 0.185809 0.260823 0.000000 0.228326 0.002500
GW 106 1 0.260823 0.000000 0.228326 0.288574 0.000000 0.276392 0.002500
GW 107 1 0.288574 0.000000 0.276392 0.307557 0.000000 0.328546 0.002500
GW 108 1 0.307557 0.000000 0.328546 0.317195 0.000000 0.383205 0.002500
GW 109 1 0.317195 0.000000 0.383205 0.317195 0.000000 0.438707 0.002500
GW 110 1 0.317195 0.000000 0.438707 0.307557 0.000000 0.493366 0.002500
GW 111 1 0.307557 0.000000 0.493366 0.288574 0.000000 0.545520 0.002500
GW 112 1 0.288574 0.000000 0.545520 0.260823 0.000000 0.593587 0.002500
GW 113 1 0.260823 0.000000 0.593587 0.225147 0.000000 0.636103 0.002500
GW 114 1 0.225147 0.000000 0.636103 0.182630 0.000000 0.671779 0.002500
GW 115 1 0.182630 0.000000 0.671779 0.134564 0.000000 0.699530 0.002500
GW 116 1 0.134564 0.000000 0.699530 0.082410 0.000000 0.718513 0.002500
GW 117 1 0.082410 0.000000 0.718513 0.027751 0.000000 0.728151 0.002500
GW 118 1 0.027751 0.000000 0.728151 -0.027751 0.000000 0.728151 0.002500
GW 119 1 -0.027751 0.000000 0.728151 -0.082410 0.000000 0.718513 0.002500
GW 120 1 -0.082410 0.000000 0.718513 -0.134564 0.000000 0.699530 0.002500
GW 121 1 -0.134564 0.000000 0.699530 -0.182630 0.000000 0.671779 0.002500
GW 122 1 -0.182630 0.000000 0.671779 -0.225147 0.000000 0.636103 0.002500
GW 123 1 -0.225147 0.000000 0.636103 -0.260823 0.000000 0.593587 0.002500
GW 124 1 -0.260823 0.000000 0.593587 -0.288574 0.000000 0.545520 0.002500
GW 125 1 -0.288574 0.000000 0.545520 -0.307557 0.000000 0.493366 0.002500
GW 126 1 -0.307557 0.000000 0.493366 -0.317195 0.000000 0.438707 0.002500
GW 127 1 -0.317195 0.000000 0.438707 -0.317195 0.000000 0.383205 0.002500
GW 128 1 -0.317195 0.000000 0.383205 -0.307557 0.000000 0.328546 0.002500
GW 129 1 -0.307557 0.000000 0.328546 -0.288574 0.000000 0.276392 0.002500
GW 130 1 -0.288574 0.000000 0.276392 -0.260823 0.000000 0.228326 0.002500
GW 131 1 -0.260823 0.000000 0.228326 -0.225147 0.000000 0.185809 0.002500
GW 132 1 -0.225147 0.000000 0.185809 -0.182630 0.000000 0.150133 0.002500
GW 133 1 -0.182630 0.000000 0.150133 -0.134564 0.000000 0.122382 0.002500
GW 134 1 -0.134564 0.000000 0.122382 -0.082410 0.000000 0.103399 0.002500
GW 135 1 -0.082410 0.000000 0.103399 -0.027751 0.000000 0.093761 0.002500
GW 200 1 0.000000 -0.032163 0.043334 0.000000 0.032163 0.043334 0.002500
GW 201 1 0.000000 0.032163 0.043334 0.000000 0.095511 0.054504 0.002500
GW 202 1 0.000000 0.095511 0.054504 0.000000 0.155957 0.076504 0.002500
GW 203 1 0.000000 0.155957 0.076504 0.000000 0.211665 0.108667 0.002500
GW 204 1 0.000000 0.211665 0.108667 0.000000 0.260941 0.150015 0.002500
GW 205 1 0.000000 0.260941 0.150015 0.000000 0.302289 0.199291 0.002500
GW 206 1 0.000000 0.302289 0.199291 0.000000 0.334452 0.254999 0.002500
GW 207 1 0.000000 0.334452 0.254999 0.000000 0.356452 0.315445 0.002500
GW 208 1 0.000000 0.356452 0.315445 0.000000 0.367622 0.378793 0.002500
GW 209 1 0.000000 0.367622 0.378793 0.000000 0.367622 0.443119 0.002500
GW 210 1 0.000000 0.367622 0.443119 0.000000 0.356452 0.506467 0.002500
GW 211 1 0.000000 0.356452 0.506467 0.000000 0.334452 0.566913 0.002500
GW 212 1 0.000000 0.334452 0.566913 0.000000 0.302289 0.622621 0.002500
GW 213 1 0.000000 0.302289 0.622621 0.000000 0.260941 0.671897 0.002500
GW 214 1 0.000000 0.260941 0.671897 0.000000 0.211665 0.713245 0.002500
GW 215 1 0.000000 0.211665 0.713245 0.000000 0.155957 0.745408 0.002500
GW 216 1 0.000000 0.155957 0.745408 0.000000 0.095511 0.767408 0.002500
GW 217 1 0.000000 0.095511 0.767408 0.000000 0.032163 0.778578 0.002500
GW 218 1 0.000000 0.032163 0.778578 0.000000 -0.032163 0.778578 0.002500
GW 219 1 0.000000 -0.032163 0.778578 0.000000 -0.095511 0.767408 0.002500
GW 220 1 0.000000 -0.095511 0.767408 0.000000 -0.155957 0.745408 0.002500
GW 221 1 0.000000 -0.155957 0.745408 0.000000 -0.211665 0.713245 0.002500
GW 222 1 0.000000 -0.211665 0.713245 0.000000 -0.260941 0.671897 0.002500
GW 223 1 0.000000 -0.260941 0.671897 0.000000 -0.302289 0.622621 0.002500
GW 224 1 0.000000 -0.302289 0.622621 0.000000 -0.334452 0.566913 0.002500
GW 225 1 0.000000 -0.334452 0.566913 0.000000 -0.356452 0.506467 0.002500
GW 226 1 0.000000 -0.356452 0.506467 0.000000 -0.367622 0.443119 0.002500
GW 227 1 0.000000 -0.367622 0.443119 0.000000 -0.367622 0.378793 0.002500
GW 228 1 0.000000 -0.367622 0.378793 0.000000 -0.356452 0.315445 0.002500
GW 229 1 0.000000 -0.356452 0.315445 0.000000 -0.334452 0.254999 0.002500
GW 230 1 0.000000 -0.334452 0.254999 0.000000 -0.302289 0.199291 0.002500
GW 231 1 0.000000 -0.302289 0.199291 0.000000 -0.260941 0.150015 0.002500
GW 232 1 0.000000 -0.260941 0.150015 0.000000 -0.211665 0.108667 0.002500
GW 233 1 0.000000 -0.211665 0.108667 0.000000 -0.155957 0.076504 0.002500
GW 234 1 0.000000 -0.155957 0.076504 0.000000 -0.095511 0.054504 0.002500
GW 235 1 0.000000 -0.095511 0.054504 0.000000 -0.032163 0.043334 0.002500
GW 300 5 0.000000 0.000000 0.000000 0.502811 0.000000 -0.234465 0.002500
GW 301 5 0.000000 0.000000 0.000000 -0.251406 0.435447 -0.234465 0.002500
GW 302 5 0.000000 0.000000 0.000000 -0.251406 -0.435447 -0.234465 0.002500
GE 0
EK
EX 0 100 1 0 1.000000 0.000000
EX 0 200 1 0 1.000000 0.000000
FR 0 1 0 0 145.900000 0
RP 0 9 7 1000 0.000 0.000 10.000 15.000
EN
