CM Eggbeater antenna (crossed full-wave loops)
CM freq 436 MHz, phasing self, reflector radials
CM conductor: round, 3 mm dia, equiv radius 1.5 mm
CE
GW 100 1 -0.009310 0.000000 0.031109 0.009310 0.000000 0.031109 0.001500
GW 101 1 0.009310 0.000000 0.031109 0.027646 0.000000 0.034342 0.001500
GW 102 1 0.027646 0.000000 0.034342 0.045143 0.000000 0.040710 0.001500
GW 103 1 0.045143 0.000000 0.040710 0.061268 0.000000 0.050020 0.001500
GW 104 1 0.061268 0.000000 0.050020 0.075531 0.000000 0.061988 0.001500
GW 105 1 0.075531 0.000000 0.061988 0.087500 0.000000 0.076252 0.001500
GW 106 1 0.087500 0.000000 0.076252 0.096809 0.000000 0.092377 0.001500
GW 107 1 0.096809 0.000000 0.092377 0.103178 0.000000 0.109873 0.001500
GW 108 1 0.103178 0.000000 0.109873 0.106411 0.000000 0.128210 0.001500
GW 109 1 0.106411 0.000000 0.128210 0.106411 0.000000 0.146829 0.001500
GW 110 1 0.106411 0.000000 0.146829 0.103178 0.000000 0.165166 0.001500
GW 111 1 0.103178 0.000000 0.165166 0.096809 0.000000 0.182662 0.001500
GW 112 1 0.096809 0.000000 0.182662 0.087500 0.000000 0.198787 0.001500
GW 113 1 0.087500 0.000000 0.198787 0.075531 0.000000 0.213051 0.001500
GW 114 1 0.075531 0.000000 0.213051 0.061268 0.000000 0.225019 0.001500
GW 115 1 0.061268 0.000000 0.225019 0.045143 0.000000 0.234329 0.001500
GW 116 1 0.045143 0.000000 0.234329 0.027646 0.000000 0.240697 0.001500
GW 117 1 0.027646 0.000000 0.240697 0.009310 0.000000 0.243930 0.001500
GW 118 1 0.009310 0.000000 0.243930 -0.009310 0.000000 0.243930 0.001500
GW 119 1 -0.009310 0.000000 0.243930 -0.027646 0.000000 0.240697 0.001500
GW 120 1 -0.027646 0.000000 0.240697 -0.045143 0.000000 0.234329 0.001500
GW 121 1 -0.045143 0.000000 0.234329 -0.061268 0.000000 0.225019 0.001500
GW 122 1 -0.061268 0.000000 0.225019 -0.075531 0.000000 0.213051 0.001500
GW 123 1 -0.075531 0.000000 0.213051 -0.087500 0.000000 0.198787 0.001500
GW 124 1 -0.087500 0.000000 0.198787 -0.096809 0.000000 0.182662 0.001500
GW 125 1 -0.096809 0.000000 0.182662 -0.103178 0.000000 0.165166 0.001500
GW 126 1 -0.103178 0.000000 0.165166 -0.106411 0.000000 0.146829 0.001500
GW 127 1 -0.106411 0.000000 0.146829 -0.106411 0.000000 0.128210 0.001500
GW 128 1 -0.106411 0.000000 0.128210 -0.103178 0.000000 0.109873 0.001500
GW 129 1 -0.103178 0.000000 0.109873 -0.096809 0.000000 0.092377 0.001500
GW 130 1 -0.096809 0.000000 0.092377 -0.087500 0.000000 0.076252 0.001500
GW 131 1 -0.087500 0.000000 0.076252 -0.075531 0.000000 0.061988 0.001500
GW 132 1 -0.075531 0.000000 0.061988 -0.061268 0.000000 0.050020 0.001500
GW 133 1 -0.061268 0.000000 0.050020 -0.045143 0.000000 0.040710 0.001500
GW 134 1 -0.045143 0.000000 0.040710 -0.027646 0.000000 0.034342 0.001500
GW 135 1 -0.027646 0.000000 0.034342 -0.009310 0.000000 0.031109 0.001500
GW 200 1 0.000000 -0.011006 0.011718 0.000000 0.011006 0.011718 0.001500
GW 201 1 0.000000 0.011006 0.011718 0.000000 0.032684 0.015541 0.001500
GW 202 1 0.000000 0.032684 0.015541 0.000000 0.053369 0.023069 0.001500
GW 203 1 0.000000 0.053369 0.023069 0.000000 0.072432 0.034076 0.001500
GW 204 1 0.000000 0.072432 0.034076 0.000000 0.089295 0.048225 0.001500
GW 205 1 0.000000 0.089295 0.048225 0.000000 0.103444 0.065087 0.001500
GW 206 1 0.000000 0.103444 0.065087 0.000000 0.114450 0.084151 0.001500
GW 207 1 0.000000 0.114450 0.084151 0.000000 0.121979 0.104835 0.001500
GW 208 1 0.000000 0.121979 0.104835 0.000000 0.125801 0.126513 0.001500
GW 209 1 0.000000 0.125801 0.126513 0.000000 0.125801 0.148526 0.001500
GW 210 1 0.000000 0.125801 0.148526 0.000000 0.121979 0.170204 0.001500
GW 211 1 0.000000 0.121979 0.170204 0.000000 0.114450 0.190888 0.001500
GW 212 1 0.000000 0.114450 0.190888 0.000000 0.103444 0.209952 0.001500
GW 213 1 0.000000 0.103444 0.209952 0.000000 0.089295 0.226814 0.001500
GW 214 1 0.000000 0.089295 0.226814 0.000000 0.072432 0.240963 0.001500
GW 215 1 0.000000 0.072432 0.240963 0.000000 0.053369 0.251970 0.001500
GW 216 1 0.000000 0.053369 0.251970 0.000000 0.032684 0.259498 0.001500
GW 217 1 0.000000 0.032684 0.259498 0.000000 0.011006 0.263321 0.001500
GW 218 1 0.000000 0.011006 0.263321 0.000000 -0.011006 0.263321 0.001500
GW 219 1 0.000000 -0.011006 0.263321 0.000000 -0.032684 0.259498 0.001500
GW 220 1 0.000000 -0.032684 0.259498 0.000000 -0.053369 0.251970 0.001500
GW 221 1 0.000000 -0.053369 0.251970 0.000000 -0.072432 0.240963 0.001500
GW 222 1 0.000000 -0.072432 0.240963 0.000000 -0.089295 0.226814 0.001500
GW 223 1 0.000000 -0.089295 0.226814 0.000000 -0.103444 0.209952 0.001500
GW 224 1 0.000000 -0.103444 0.209952 0.000000 -0.114450 0.190888 0.001500
GW 225 1 0.000000 -0.114450 0.190888 0.000000 -0.121979 0.170204 0.001500
GW 226 1 0.000000 -0.121979 0.170204 0.000000 -0.125801 0.148526 0.001500
GW 227 1 0.000000 -0.125801 0.148526 0.000000 -0.125801 0.126513 0.001500
GW 228 1 0.000000 -0.125801 0.126513 0.000000 -0.121979 0.104835 0.001500
GW 229 1 0.000000 -0.121979 0.104835 0.000000 -0.114450 0.084151 0.001500
GW 230 1 0.000000 -0.114450 0.084151 0.000000 -0.103444 0.065087 0.001500
GW 231 1 0.000000 -0.103444 0.065087 0.000000 -0.089295 0.048225 0.001500
GW 232 1 0.000000 -0.089295 0.048225 0.000000 -0.072432 0.034076 0.001500
GW 233 1 0.000000 -0.072432 0.034076 0.000000 -0.053369 0.023069 0.001500
GW 234 1 0.000000 -0.053369 0.023069 0.000000 -0.032684 0.015541 0.001500
GW 235 1 0.000000 -0.032684 0.015541 0.000000 -0.011006 0.011718 0.001500
GW 300 5 0.000000 0.000000 0.000000 0.119334 0.000000 -0.142217 0.001500
GW 301 5 0.000000 0.000000 0.000000 0.084382 0.084382 -0.142217 0.001500
GW 302 5 0.000000 0.000000 0.000000 0.000000 0.119334 -0.142217 0.001500
GW 303 5 0.000000 0.000000 0.000000 -0.084382 0.084382 -0.142217 0.001500
GW 304 5 0.000000 0.000000 0.000000 -0.119334 0.000000 -0.142217 0.001500
GW 305 5 0.000000 0.000000 0.000000 -0.084382 -0.084382 -0.142217 0.001500
GW 306 5 0.000000 0.000000 0.000000 -0.000000 -0.119334 -0.142217 0.001500
GW 307 5 0.000000 0.000000 0.000000 0.084382 -0.084382 -0.142217 0.001500
GE 0
EK
EX 0 100 1 0 1.000000 0.000000
EX 0 200 1 0 1.000000 0.000000
FR 0 1 0 0 436.000000 0
RP 0 9 7 1000 0.000 0.000 10.000 15.000
EN
