CM Eggbeater antenna (crossed full-wave loops)
CM freq 145.9 MHz, phasing self, reflector radials
CM conductor: round, 5 mm dia, equiv radius 2.5 mm
CE
GW 100 1 -0.027746 0.000000 0.093856 0.027746 0.000000 0.093856 0.002500
GW 101 1 0.027746 0.000000 0.093856 0.082395 0.000000 0.103492 0.002500
GW 102 1 0.082395 0.000000 0.103492 0.134540 0.000000 0.122472 0.002500
GW 103 1 0.134540 0.000000 0.122472 0.182597 0.000000 0.150218 0.002500
GW 104 1 0.182597 0.000000 0.150218 0.225107 0.000000 0.185887 0.002500
GW 105 1 0.225107 0.000000 0.185887 0.260776 0.000000 0.228396 0.002500
GW 106 1 0.260776 0.000000 0.228396 0.288522 0.000000 0.276454 0.002500
GW 107 1 0.288522 0.000000 0.276454 0.307501 0.000000 0.328599 0.002500
GW 108 1 0.307501 0.000000 0.328599 0.317137 0.000000 0.383248 0.002500
GW 109 1 0.317137 0.000000 0.383248 0.317137 0.000000 0.438740 0.002500
GW 110 1 0.317137 0.000000 0.438740 0.307501 0.000000 0.493388 0.002500
GW 111 1 0.307501 0.000000 0.493388 0.288522 0.000000 0.545534 0.002500
GW 112 1 0.288522 0.000000 0.545534 0.260776 0.000000 0.593591 0.002500
GW 113 1 0.260776 0.000000 0.593591 0.225107 0.000000 0.636100 0.002500
GW 114 1 0.225107 0.000000 0.636100 0.182597 0.000000 0.671770 0.002500
GW 115 1 0.182597 0.000000 0.671770 0.134540 0.000000 0.699516 0.002500
GW 116 1 0.134540 0.000000 0.699516 0.082395 0.000000 0.718495 0.002500
GW 117 1 0.082395 0.000000 0.718495 0.027746 0.000000 0.728131 0.002500
GW 118 1 0.027746 0.000000 0.728131 -0.027746 0.000000 0.728131 0.002500
GW 119 1 -0.027746 0.000000 0.728131 -0.082395 0.000000 0.718495 0.002500
GW 120 1 -0.082395 0.000000 0.718495 -0.134540 0.000000 0.699516 0.002500
GW 121 1 -0.134540 0.000000 0.699516 -0.182597 0.000000 0.671770 0.002500
GW 122 1 -0.182597 0.000000 0.671770 -0.225107 0.000000 0.636100 0.002500
GW 123 1 -0.225107 0.000000 0.636100 -0.260776 0.000000 0.593591 0.002500
GW 124 1 -0.260776 0.000000 0.593591 -0.288522 0.000000 0.545534 0.002500
GW 125 1 -0.288522 0.000000 0.545534 -0.307501 0.000000 0.493388 0.002500
GW 126 1 -0.307501 0.000000 0.493388 -0.317137 0.000000 0.438740 0.002500
GW 127 1 -0.317137 0.000000 0.438740 -0.317137 0.000000 0.383248 0.002500
GW 128 1 -0.317137 0.000000 0.383248 -0.307501 0.000000 0.328599 0.002500
GW 129 1 -0.307501 0.000000 0.328599 -0.288522 0.000000 0.276454 0.002500
GW 130 1 -0.288522 0.000000 0.276454 -0.260776 0.000000 0.228396 0.002500
GW 131 1 -0.260776 0.000000 0.228396 -0.225107 0.000000 0.185887 0.002500
GW 132 1 -0.225107 0.000000 0.185887 -0.182597 0.000000 0.150218 0.002500
GW 133 1 -0.182597 0.000000 0.150218 -0.134540 0.000000 0.122472 0.002500
GW 134 1 -0.134540 0.000000 0.122472 -0.082395 0.000000 0.103492 0.002500
GW 135 1 -0.082395 0.000000 0.103492 -0.027746 0.000000 0.093856 0.002500
GW 200 1 0.000000 -0.032157 0.043438 0.000000 0.032157 0.043438 0.002500
GW 201 1 0.000000 0.032157 0.043438 0.000000 0.095494 0.054606 0.002500
GW 202 1 0.000000 0.095494 0.054606 0.000000 0.155929 0.076603 0.002500
GW 203 1 0.000000 0.155929 0.076603 0.000000 0.211627 0.108760 0.002500
GW 204 1 0.000000 0.211627 0.108760 0.000000 0.260894 0.150100 0.002500
GW 205 1 0.000000 0.260894 0.150100 0.000000 0.302234 0.199367 0.002500
GW 206 1 0.000000 0.302234 0.199367 0.000000 0.334391 0.255065 0.002500
GW 207 1 0.000000 0.334391 0.255065 0.000000 0.356388 0.315500 0.002500
GW 208 1 0.000000 0.356388 0.315500 0.000000 0.367556 0.378837 0.002500
GW 209 1 0.000000 0.367556 0.378837 0.000000 0.367556 0.443151 0.002500
GW 210 1 0.000000 0.367556 0.443151 0.000000 0.356388 0.506488 0.002500
GW 211 1 0.000000 0.356388 0.506488 0.000000 0.334391 0.566923 0.002500
GW 212 1 0.000000 0.334391 0.566923 0.000000 0.302234 0.622620 0.002500
GW 213 1 0.000000 0.302234 0.622620 0.000000 0.260894 0.671888 0.002500
GW 214 1 0.000000 0.260894 0.671888 0.000000 0.211627 0.713228 0.002500
GW 215 1 0.000000 0.211627 0.713228 0.000000 0.155929 0.745385 0.002500
GW 216 1 0.000000 0.155929 0.745385 0.000000 0.095494 0.767382 0.002500
GW 217 1 0.000000 0.095494 0.767382 0.000000 0.032157 0.778550 0.002500
GW 218 1 0.000000 0.032157 0.778550 0.000000 -0.032157 0.778550 0.002500
GW 219 1 0.000000 -0.032157 0.778550 0.000000 -0.095494 0.767382 0.002500
GW 220 1 0.000000 -0.095494 0.767382 0.000000 -0.155929 0.745385 0.002500
GW 221 1 0.000000 -0.155929 0.745385 0.000000 -0.211627 0.713228 0.002500
GW 222 1 0.000000 -0.211627 0.713228 0.000000 -0.260894 0.671888 0.002500
GW 223 1 0.000000 -0.260894 0.671888 0.000000 -0.302234 0.622620 0.002500
GW 224 1 0.000000 -0.302234 0.622620 0.000000 -0.334391 0.566923 0.002500
GW 225 1 0.000000 -0.334391 0.566923 0.000000 -0.356388 0.506488 0.002500
GW 226 1 0.000000 -0.356388 0.506488 0.000000 -0.367556 0.443151 0.002500
GW 227 1 0.000000 -0.367556 0.443151 0.000000 -0.367556 0.378837 0.002500
GW 228 1 0.000000 -0.367556 0.378837 0.000000 -0.356388 0.315500 0.002500
GW 229 1 0.000000 -0.356388 0.315500 0.000000 -0.334391 0.255065 0.002500
GW 230 1 0.000000 -0.334391 0.255065 0.000000 -0.302234 0.199367 0.002500
GW 231 1 0.000000 -0.302234 0.199367 0.000000 -0.260894 0.150100 0.002500
GW 232 1 0.000000 -0.260894 0.150100 0.000000 -0.211627 0.108760 0.002500
GW 233 1 0.000000 -0.211627 0.108760 0.000000 -0.155929 0.076603 0.002500
GW 234 1 0.000000 -0.155929 0.076603 0.000000 -0.095494 0.054606 0.002500
GW 235 1 0.000000 -0.095494 0.054606 0.000000 -0.032157 0.043438 0.002500
GW 300 5 0.000000 0.000000 0.000000 0.509630 0.000000 -0.219248 0.002500
GW 301 5 0.000000 0.000000 0.000000 -0.254815 0.441353 -0.219248 0.002500
GW 302 5 0.000000 0.000000 0.000000 -0.254815 -0.441353 -0.219248 0.002500
GE 0
EK
EX 0 100 1 0 1.000000 0.000000
EX 0 200 1 0 1.000000 0.000000
FR 0 1 0 0 145.900000 0
RP 0 9 7 1000 0.000 0.000 10.000 15.000
EN
