CM Single Inverted Vertical Delta Loop
CE
SY TOP=18	'top (X)
SY R=5.1667	'length of spreader (1/2 full width) (Y/Z)
SY FW=0.1667	'width at feedpoint (Y/Z)
SY BOT=2	'bottom (X)
GW	1	15	FW	0	BOT	R	0	TOP	0.001	'riser +x
GW	2	5	R	0	TOP	-R	0	TOP	0.001   'top x
GW	3	15	-R	0	TOP	-FW	0	BOT	0.001   'riser -x
GW	4	3	FW	0	BOT	-FW	0	BOT	0.001   'feedpoint
GE	-1
GN	2	0	0	0	5	0.001
EK
EX	0	4	2	0	1	0	0
FR	0	0	0	0	3.5	0
EN
